/*--------------------------------*- C++ -*----------------------------------*\
  =========                 |
  \\      /  F ield         | OpenFOAM: The Open Source CFD Toolbox
   \\    /   O peration     | Website:  https://openfoam.org
    \\  /    A nd           | Version:  8
     \\/     M anipulation  |
\*---------------------------------------------------------------------------*/
FoamFile
{
	version		2.0;
	format		ascii;
	class		polyBoundaryMesh;
	location	"constant/polyMesh";
	object		boundary;
}

7
(
	inlet
	{
	type		patch;
	nFaces		100;
	startFace	33655;
	}
	outlet
	{
	type		patch;
	nFaces		100;
	startFace	33755;
	}
	bottom
	{
	type		symmetryPlane;
	nFaces		145;
	startFace	33855;
	}
	top
	{
	type		symmetryPlane;
	nFaces		145;
	startFace	34000;
	}
	cylinder
	{
	type		wall;
	nFaces		200;
	startFace	34145;
	}
	back
	{
	type		empty;
	nFaces		17000;
	startFace	34345;
	}
	front
	{
	type		empty;
	nFaces		17000;
	startFace	51345;
	}
)
